 Process Information:


 Model Input Parameters:  ROMS/TOMS version 3.2  
                          
 -----------------------------------------------------------------------------
