Command line:
./run_spec17suit.sh x264_r
================= Hardcoded directories ==================
GEM5_DIR:                                     /home/chengxiaoyu/silentbranch/gem5-sttre-preiq
SPEC_DIR:                                     /home/chengxiaoyu/spec20171.1.9
==================== Script inputs =======================
BENCHMARK:                                    x264_r
OUTPUT_DIR:                                   /home/chengxiaoyu/silentbranch/gem5-sttre-preiq/spec2017_results/spectre/x264_r
WORK_DIR:                                     /home/chengxiaoyu/silentbranch/gem5-sttre-preiq/spec2017_work/spectre/x264_r
SCHEME_NAME:                                  spectre
==========================================================
Original SPEC benchmark runtime directory: /home/chengxiaoyu/spec20171.1.9/benchspec/CPU/525.x264_r/run/run_base_refrate_x86-m64.0000
Changing to isolated benchmark runtime directory: /home/chengxiaoyu/silentbranch/gem5-sttre-preiq/spec2017_work/spectre/x264_r


--------- Starting gem5! ------------


Global frequency set at 1000000000000 ticks per second
Info: simulation uses threatModel: Spectre; needsTSO=0
applySTT = 1, implicit_channel = 1, ifPrintROB = 0, moreTransmitInsts = 2, isLongLoopMacroop = 0
gem5 Simulator System.  http://gem5.org
gem5 is copyrighted software; use the --copyright option for details.

gem5 version 21.2.1.1
gem5 compiled May 22 2026 17:15:25
gem5 started May 24 2026 13:17:17
gem5 executing on unislab-PowerEdge-T640, pid 1791680
command line: /home/chengxiaoyu/silentbranch/gem5-sttre-preiq/build/X86/gem5.opt --outdir=/home/chengxiaoyu/silentbranch/gem5-sttre-preiq/spec2017_results/spectre/x264_r/m5out /home/chengxiaoyu/silentbranch/gem5-sttre-preiq/configs/spec2017/se_spec2017.py --num-cpus=1 --bp-type=BiModeBP --caches --l2cache --num-l2cache=1 --l1i_size=32kB --l1i_assoc=8 --l1d_size=32kB --l1d_assoc=8 --l2_size=256kB --l2_assoc=16 --mem-size=8192MB --cpu-type=DerivO3CPU --maxinsts=100000000 --threat_model=Spectre --needsTSO=0 --STT=1 --implicit_channel=1 --moreTransmitInsts=2 --benchmark=x264_r --benchmark_stdout=/home/chengxiaoyu/silentbranch/gem5-sttre-preiq/spec2017_results/spectre/x264_r/x264_r.out --benchmark_stderr=/home/chengxiaoyu/silentbranch/gem5-sttre-preiq/spec2017_results/spectre/x264_r/x264_r.err

info: Standard input is not a terminal, disabling listeners.
Selected SPEC_CPU2017 benchmark
--> x264_r
Process stdout file: /home/chengxiaoyu/silentbranch/gem5-sttre-preiq/spec2017_results/spectre/x264_r/x264_r.out
Process stderr file: /home/chengxiaoyu/silentbranch/gem5-sttre-preiq/spec2017_results/spectre/x264_r/x264_r.err
['x264_r_base.x86-m64', '--pass', '1', '--stats', 'x264_stats.log', '--bitrate', '1000', '--frames', '1000', '-o', 'BuckBunny_New.264', 'BuckBunny.yuv', '1280x720']
**** REAL SIMULATION ****
Exiting @ tick 58694500500 because a thread reached the max instruction count
