Command line:
./run_spec17suit.sh xz_r
================= Hardcoded directories ==================
GEM5_DIR:                                     /home/chengxiaoyu/silentbranch/gem5-sttre-preiq
SPEC_DIR:                                     /home/chengxiaoyu/spec20171.1.9
==================== Script inputs =======================
BENCHMARK:                                    xz_r
OUTPUT_DIR:                                   /home/chengxiaoyu/silentbranch/gem5-sttre-preiq/spec2017_results/spectre/xz_r
WORK_DIR:                                     /home/chengxiaoyu/silentbranch/gem5-sttre-preiq/spec2017_work/spectre/xz_r
SCHEME_NAME:                                  spectre
==========================================================
Original SPEC benchmark runtime directory: /home/chengxiaoyu/spec20171.1.9/benchspec/CPU/557.xz_r/run/run_base_refrate_x86-m64.0000
Changing to isolated benchmark runtime directory: /home/chengxiaoyu/silentbranch/gem5-sttre-preiq/spec2017_work/spectre/xz_r


--------- Starting gem5! ------------


Global frequency set at 1000000000000 ticks per second
Info: simulation uses threatModel: Spectre; needsTSO=0
applySTT = 1, implicit_channel = 1, ifPrintROB = 0, moreTransmitInsts = 2, isLongLoopMacroop = 0
gem5 Simulator System.  http://gem5.org
gem5 is copyrighted software; use the --copyright option for details.

gem5 version 21.2.1.1
gem5 compiled May 22 2026 17:15:25
gem5 started May 24 2026 15:46:04
gem5 executing on unislab-PowerEdge-T640, pid 872009
command line: /home/chengxiaoyu/silentbranch/gem5-sttre-preiq/build/X86/gem5.opt --outdir=/home/chengxiaoyu/silentbranch/gem5-sttre-preiq/spec2017_results/spectre/xz_r/m5out /home/chengxiaoyu/silentbranch/gem5-sttre-preiq/configs/spec2017/se_spec2017.py --num-cpus=1 --bp-type=BiModeBP --caches --l2cache --num-l2cache=1 --l1i_size=32kB --l1i_assoc=8 --l1d_size=32kB --l1d_assoc=8 --l2_size=256kB --l2_assoc=16 --mem-size=8192MB --cpu-type=DerivO3CPU --maxinsts=100000000 --threat_model=Spectre --needsTSO=0 --STT=1 --implicit_channel=1 --moreTransmitInsts=2 --benchmark=xz_r --benchmark_stdout=/home/chengxiaoyu/silentbranch/gem5-sttre-preiq/spec2017_results/spectre/xz_r/xz_r.out --benchmark_stderr=/home/chengxiaoyu/silentbranch/gem5-sttre-preiq/spec2017_results/spectre/xz_r/xz_r.err

info: Standard input is not a terminal, disabling listeners.
Selected SPEC_CPU2017 benchmark
--> xz_r
Process stdout file: /home/chengxiaoyu/silentbranch/gem5-sttre-preiq/spec2017_results/spectre/xz_r/xz_r.out
Process stderr file: /home/chengxiaoyu/silentbranch/gem5-sttre-preiq/spec2017_results/spectre/xz_r/xz_r.err
['xz_r_base.x86-m64', 'cld.tar.xz', '160', '19cf30ae51eddcbefda78dd06014b4b96281456e078ca7c13e1c0c9e6aaea8dff3efb4ad6b0456697718cede6bd5454852652806a657bb56e07d61128434b474', '59796407', '61004416', '6']
**** REAL SIMULATION ****
Exiting @ tick 20641895500 because exiting with last active thread context
Simulated exit code not 0! Exit code is 1
